Data/networks/opendssNetworks/network_5/Feeder_3/LineCode.txt
New LineCode..0225 nphases=3 R1=1.257 X1=0.085 R0=1.257 X0=0.085 C1=0 C0=0 Units=km
New LineCode..04 nphases=3 R1=0.708 X1=0.079 R0=0.708 X0=0.079 C1=0 C0=0 Units=km
New LineCode.16_PSC nphases=3 R1=1.15 X1=0.088 R0=1.2 X0=0.088 C1=0 C0=0 Units=km
New LineCode.25_SAC_PC nphases=3 R1=1.2 X1=0.084 R0=1.3 X0=0.084 C1=0 C0=0 Units=km
New LineCode.25_SAC_XC nphases=3 R1=1.2 X1=0.079 R0=1.3 X0=0.079 C1=0 C0=0 Units=km
New LineCode.2c_.0145 nphases=3 R1=1.903 X1=0.09 R0=1.903 X0=0.09 C1=0 C0=0 Units=km
New LineCode.2c_.02 nphases=3 R1=1.257 X1=0.085 R0=1.257 X0=0.085 C1=0 C0=0 Units=km
New LineCode.2c_.0225 nphases=3 R1=1.257 X1=0.085 R0=1.257 X0=0.085 C1=0 C0=0 Units=km
New LineCode.2c_.04 nphases=3 R1=0.708 X1=0.079 R0=0.708 X0=0.079 C1=0 C0=0 Units=km
New LineCode.35_PC nphases=3 R1=0.868 X1=0.077 R0=0.91 X0=0.077 C1=0 C0=0 Units=km
New LineCode.35_SAC_PC nphases=3 R1=0.868 X1=0.077 R0=0.91 X0=0.077 C1=0 C0=0 Units=km
New LineCode.35_SAC_PC nphases=3 R1=0.868 X1=0.077 R0=0.91 X0=0.077 C1=0 C0=0 Units=km
New LineCode.3c_185_SAC_XC nphases=3 R1=0.166 X1=0.074 R0=0.658 X0=0.112 C1=0 C0=0 Units=km
New LineCode.4_PC nphases=3 R1=4.61 X1=0.094 R0=4.8 X0=0.094 C1=0 C0=0 Units=km
New LineCode.4_XC nphases=3 R1=4.61 X1=0.091 R0=4.8 X0=0.091 C1=0 C0=0 Units=km
New LineCode.4_XC nphases=3 R1=4.61 X1=0.091 R0=4.8 X0=0.091 C1=0 C0=0 Units=km
New LineCode.4_XC nphases=3 R1=4.61 X1=0.091 R0=4.8 X0=0.091 C1=0 C0=0 Units=km
New LineCode.4c_.0145 nphases=3 R1=1.903 X1=0.089 R0=5.25 X0=0.148 C1=0 C0=0 Units=km
New LineCode.4c_.2_SAC nphases=3 R1=0.23 X1=0.069 R0=0.782 X0=0.085 C1=0 C0=0 Units=km
New LineCode.4c_.3_SAC nphases=3 R1=0.15 X1=0.068 R0=0.521 X0=0.083 C1=0 C0=0 Units=km
New LineCode.4c_185_SAC_XC nphases=3 R1=0.166 X1=0.073 R0=0.413 X0=0.093 C1=0 C0=0 Units=km
New LineCode.5c_.04 nphases=3 R1=0.708 X1=0.079 R0=2.32 X0=0.093 C1=0 C0=0 Units=km
New LineCode.5c_.1 nphases=3 R1=0.274 X1=0.073 R0=0.959 X0=0.079 C1=0 C0=0 Units=km
